tests/data/9bus/9barras2.pwf
TITU
Sistema-Teste de 9 Barras - Caso Base
DOPC IMPR
(Op) E (Op) E (Op) E (Op) E (Op) E (Op) E (Op) E (Op) E (Op) E (Op) E
QLIM L CREM L CTAP L NEWT L MOCT L MOCG L MOCF L RCVG L RMON L
99999
DBAR
(No )OETGb(   nome   )Gl( V)( A)( Pg)( Qg)( Qn)( Qm)(Bc  )( Pl)( Ql)( Sh)Are(Vf)
    1  2 A BAR-1 GER1  A1030  0.178.7 10.4-122. 122.                       11000
    2  1 A BAR-2 GER2  A1035 -.5 150.19.24 -96.  96.                       11000
    3    E BAR-3       A1029-5.2                                           11000
    4    E BAR-4       A1027-6.7                                           11000
    5    E BAR-5 CAR1  A1012-8.9                            55.  27.       11000
    6    E BAR-6 CAR2  A1022 -9.                            37.  18.       11000
    7    E BAR-7 CAR3  A1007-11.                            68.  45.       11000
    8    E BAR-8 CAR4  A1019-10.                            90.  35.       11000
    9    E BAR-9 CAR5  A1003-13.                            75.  28.       11000
99999
DLIN
(De )d O d(Pa )NcEP ( R% )( X% )(Mvar)(Tap)(Tmn)(Tmx)(Phs)(Bc  )(Cn)(Ce)Ns
    1         3 1           5.34         1.                      300 330
    2         4 1           7.68         1.                      230 253
    3         5 1      1.7   9.2  15.8                           200 220
    3         8 1       1.   8.5  17.6                           200 220
    4         7 1       .9   7.9  16.2                           200 220
    5         7 1      3.2  16.1  30.6                           200 220
    6         4 1      .85   7.2  14.9                           200 220
    6         8 1      1.1   8.4  25.6                           200 220
    7         9 1     1.19 10.08  20.9                           200 220
    8         9 1      3.9   17.  35.8                           200 220
99999
DGLT
(G (Vmn) (Vmx)
 A   .95  1.05
99999
DARE
(Ar    (Xchg)     (      Identificacao da area       ) (Xmin) (Xmax)
  1        0.     *** AREA 1 ***
99999
DGBT
(G ( kV)
 A  13.8
 E  230.
99999
DGGB
(G Co Es
 A  0  1
 E  0  1
99999
FIM
